
Vdd Vdd 0 Dc 5
Va A 0 dc pwl 10n 0 20n 5 50n 5 60n 0 90n
 0 100n 5 130n 5 140n 0 
Vb B 0 dc pwl 10n 0 20n 5 100n 5 110n 0
.measure tran tf trig v(OUT) val=4.5 fall=1 td=4ns
 targ v(OUT) val=0.5 fall=1
.measure tran tr trig v(OUT) val=0.5 rise=1 td=4ns
+ targ v(OUT) val=4.5 rise=1
.tran 200n
.include C:\Electric\c5_models.txt
.END
